/*--------------------------------*- C++ -*----------------------------------*\
  =========                 |
  \\      /  F ield         | OpenFOAM: The Open Source CFD Toolbox
   \\    /   O peration     | Website:  https://openfoam.org
    \\  /    A nd           | Version:  6
     \\/     M anipulation  |
\*---------------------------------------------------------------------------*/
FoamFile
{
    version     2.0;
    format      ascii;
    class       volScalarField;
    location    "0";
    object      epsilon;
}
// * * * * * * * * * * * * * * * * * * * * * * * * * * * * * * * * * * * * * //

dimensions      [0 2 -3 0 0 0 0];

#include        "include/initialConditions"

internalField   uniform $turbulentEpsilon;

boundaryField
{
    #include "include/ABLConditions"
    South		//outlet
    {
        type            inletOutlet;
        inletValue      uniform $turbulentEpsilon;
        value           $internalField;
    }

    West		//inlet
    {
        type            atmBoundaryLayerInletEpsilon;
        #include        "include/ABLConditions"
        value           $internalField;
    }

    East		//outlet
    {
        type            inletOutlet;
        inletValue      uniform $turbulentEpsilon;
        value           $internalField;
    }

    North		//inlet
    {
        type            atmBoundaryLayerInletEpsilon;
        #include        "include/ABLConditions"
        value           $internalField;
    }


    top			//top 
    {
        type            slip;
    } 
 
    "(MUST)"		//buildings
    {
        type            epsilonWallFunction;
        Cmu             0.09;
        kappa           0.4;
        E               9.8;
        value           $internalField;
    }

    

    floor
   { 
      type            atmEpsilonWallFunction; 
       Cmu             0.09;
       kappa           0.4;
       //E               9.8;
       value           $internalField;
       z0               $z0;
       //lowReCorrection false;
   }


    #includeEtc "caseDicts/setConstraintTypes"
}


// ************************************************************************* //
