/*--------------------------------*- C++ -*----------------------------------*\
  =========                 |
  \\      /  F ield         | OpenFOAM: The Open Source CFD Toolbox
   \\    /   O peration     | Website:  https://openfoam.org
    \\  /    A nd           | Version:  6
     \\/     M anipulation  |
\*---------------------------------------------------------------------------*/
FoamFile
{
    version     2.0;
    format      ascii;
    class       dictionary;
    object      blockMeshDict;
}
// * * * * * * * * * * * * * * * * * * * * * * * * * * * * * * * * * * * * * //




backgroundMesh
{
    xMin   -210; //
    xMax   210;
    yMin   -210; //
    yMax   210;
    zMin   0;
    zMax   50;
    xCells  100;
    yCells  100;
    zCells  12;
}
convertToMeters 1;

vertices
(
    ($!backgroundMesh/xMin $!backgroundMesh/yMin $!backgroundMesh/zMin)
    ($!backgroundMesh/xMax $!backgroundMesh/yMin $!backgroundMesh/zMin)
    ($!backgroundMesh/xMax $!backgroundMesh/yMax $!backgroundMesh/zMin)
    ($!backgroundMesh/xMin $!backgroundMesh/yMax $!backgroundMesh/zMin)

    ($!backgroundMesh/xMin $!backgroundMesh/yMin $!backgroundMesh/zMax)
    ($!backgroundMesh/xMax $!backgroundMesh/yMin $!backgroundMesh/zMax)
    ($!backgroundMesh/xMax $!backgroundMesh/yMax $!backgroundMesh/zMax)
    ($!backgroundMesh/xMin $!backgroundMesh/yMax $!backgroundMesh/zMax)
);

blocks
(
    hex (0 1 2 3 4 5 6 7)
    (
        $!backgroundMesh/xCells
        $!backgroundMesh/yCells
        $!backgroundMesh/zCells
    )
    simpleGrading (1 1 1)
);

edges
(
);

boundary
(
    West
    {
        type patch;
        faces
        (
            (0 3 7 4)
        );
    }

    East
    {
        type patch;
        faces
        (
            (1 5 6 2)
        );
    }

    South
    {
        type patch;
        faces
        (
            (0 4 5 1)
        );
    }

    North
    {
        type patch;
        faces
        (
            (2 3 7 6)
        );
    }

    floor
    {
        type wall;
        faces
        (
            (0 1 2 3)
        );
    }

    top
    {
        type patch;
        faces
        (
            (4 5 6 7)
        );
    }

);

mergePatchPairs
(
);

// ************************************************************************* //
