/*--------------------------------*- C++ -*----------------------------------*\
  =========                 |
  \\      /  F ield         | OpenFOAM: The Open Source CFD Toolbox
   \\    /   O peration     | Website:  https://openfoam.org
    \\  /    A nd           | Version:  6
     \\/     M anipulation  |
\*---------------------------------------------------------------------------*/
FoamFile
{
    version     2.0;
    format      ascii;
    class       dictionary;
    object      fvSchemes;
}
// * * * * * * * * * * * * * * * * * * * * * * * * * * * * * * * * * * * * * //

ddtSchemes
{
    default         steadyState;
}

gradSchemes
{
    default         cellLimited Gauss linear 0.5;

    limited         cellLimited Gauss linear 0.5;
    grad(U)         $limited;
    grad(k)         $limited;
    grad(epsilon)   $limited;
}

divSchemes
{
    default         	bounded Gauss limitedLinear 0.5;

    div(phi,U)      	bounded Gauss linearUpwind limited;

    turbulence      	bounded Gauss limitedLinear 0.5;
    div(phi,k)     	    $turbulence;
    div(phi,epsilon) 	$turbulence;
    div((nuEff*dev2(T(grad(U))))) Gauss linear;
}

laplacianSchemes
{
    default         Gauss linear corrected;
}

interpolationSchemes
{
    default         linear;
}

snGradSchemes
{
    default         corrected;
}

wallDist
{
    method meshWave;
}

// ************************************************************************* //
